/*--------------------------------*- C++ -*----------------------------------*\
| =========                 |                                                 |
| \\      /  F ield         | OpenFOAM: The Open Source CFD Toolbox           |
|  \\    /   O peration     | Version:  2.3.0                                 |
|   \\  /    A nd           | Web:      www.OpenFOAM.org                      |
|    \\/     M anipulation  |                                                 |
\*---------------------------------------------------------------------------*/
FoamFile
{
    version     2.0;
    format      ascii;
    class       dictionary;
    location    "constant/polyMesh";
    object      meshMetaDict;
}
// * * * * * * * * * * * * * * * * * * * * * * * * * * * * * * * * * * * * * //

surfaceFile     "geom.fms";

surfaceMeta
{
    nPoints         10;
    nFacets         10;
    nPatches        5;
    nFeatureEdges   0;
    patches
    {
        left
        {
            type            wall;
            nFacets         2;
        }
        bottom
        {
            type            wall;
            nFacets         2;
        }
        right
        {
            type            wall;
            nFacets         2;
        }
        top0
        {
            type            wall;
            nFacets         2;
        }
        top1
        {
            type            wall;
            nFacets         2;
        }
    }
    pointSubsets
    {
    }
    facetSubsets
    {
    }
    featureEdgeSubsets
    {
    }
}
